test/TEST190523/v_h16.csv
Bus, BasekV, Node1, Magnitude1, Angle1, pu1, Node2, Magnitude2, Angle2, pu2, Node3, Magnitude3, Angle3, pu3
"SOURCEBUS", 69, 1,    41804.8,   -0.2,    1.0494, 2,    41810.3, -120.2,    1.0495, 3,    41776.5,  119.8,    1.0487
"BUSMVMAI1", 12.8, 1,    7747.19,  -30.6,    1.0483, 2,    7754.69, -150.6,    1.0493, 3,    7737.23,   89.2,     1.047
"BUSMVMAI136", 12.505, 1,    7747.18,  -30.6,     1.073, 2,    7754.65, -150.6,    1.0741, 3,    7737.15,   89.1,    1.0716
"BUSMVMAI3", 12.505, 1,       7736,  -31.2,    1.0715, 2,    7720.33, -150.8,    1.0693, 3,    7666.95,   88.3,    1.0619
"BUSMVMAI2", 12.505, 1,    7735.97,  -31.2,    1.0715, 2,    7720.23, -150.8,    1.0693, 3,    7666.76,   88.3,    1.0619
"BUSMVMAI4", 12.505, 1,    7735.66,  -31.3,    1.0714, 2,    7719.26, -150.8,    1.0691, 3,     7664.8,   88.3,    1.0616
"BUSMVMAI46", 12.505, 1,    7736.01,  -31.2,    1.0715, 2,    7720.37, -150.8,    1.0693, 3,    7667.04,   88.3,    1.0619
"BUSMVMAI5", 12.505, 1,    7735.13,  -31.3,    1.0713, 2,    7718.12, -150.8,     1.069, 3,    7662.73,   88.2,    1.0613
"BUSMVMAI862", 12.505, 1,    7735.66,  -31.3,    1.0714, 0, 0, 0, 0, 0, 0, 0, 0
"BUSMVMAI6", 12.505, 1,    7735.02,  -31.3,    1.0713, 2,     7717.9, -150.8,     1.069, 3,    7662.35,   88.2,    1.0613
"BUSMVMAI859", 12.505, 3,     7662.7,   88.2,    1.0613, 0, 0, 0, 0, 0, 0, 0, 0
"BUSMVMAI860", 12.505, 3,    7662.73,   88.2,    1.0613, 0, 0, 0, 0, 0, 0, 0, 0
"BUSMVMAI7", 12.505, 1,    7734.32,  -31.3,    1.0712, 2,    7716.96, -150.8,    1.0688, 3,    7660.78,   88.2,     1.061
"BUSMVMAI8", 12.505, 1,    7734.95,  -31.3,    1.0713, 2,    7715.14, -150.8,    1.0686, 3,    7659.37,   88.2,    1.0609
"BUSMVMAI9", 12.505, 1,    7734.32,  -31.3,    1.0712, 2,    7716.96, -150.8,    1.0688, 3,    7660.78,   88.2,     1.061
"BUSMVMAI10", 12.505, 1,    7733.61,  -31.3,    1.0711, 2,    7717.07, -150.8,    1.0688, 3,    7660.35,   88.2,     1.061
"BUSMVMAI56", 12.505, 1,    7733.97,  -31.3,    1.0712, 2,    7717.02, -150.8,    1.0688, 3,    7660.56,   88.2,     1.061
"BUSMVMAI861", 12.505, 3,    7662.64,   88.2,    1.0613, 0, 0, 0, 0, 0, 0, 0, 0
"BUSMVMAI12", 12.505, 1,    7735.47,  -31.3,    1.0714, 2,    7713.67, -150.8,    1.0684, 3,    7658.22,   88.2,    1.0607
"BUSMVMAI51", 12.505, 1,    7734.95,  -31.3,    1.0713, 2,    7715.14, -150.8,    1.0686, 3,    7659.37,   88.2,    1.0609
"BUSMVMAI2171", 12.505, 1,    7734.95,  -31.3,    1.0713, 0, 0, 0, 0, 0, 0, 0, 0
"BUSMVMAI863", 12.505, 3,    7662.59,   88.2,    1.0613, 0, 0, 0, 0, 0, 0, 0, 0
"BUSMVMAI2165", 12.505, 3,    7660.78,   88.2,     1.061, 0, 0, 0, 0, 0, 0, 0, 0
"BUSMVMAI694", 12.505, 1,    7734.32,  -31.3,    1.0712, 2,    7716.96, -150.8,    1.0688, 3,    7660.77,   88.2,     1.061
"BUSMVMAI122", 12.505, 1,    7733.58,  -31.3,    1.0711, 2,    7717.08, -150.8,    1.0688, 3,    7660.33,   88.2,     1.061
"BUSMVMAI11", 12.505, 1,    7735.46,  -31.3,    1.0714, 2,    7713.66, -150.8,    1.0684, 3,    7658.22,   88.2,    1.0607
"BUSMVMAI13", 12.505, 1,    7735.46,  -31.3,    1.0714, 2,    7713.65, -150.8,    1.0684, 3,    7658.23,   88.2,    1.0607
"BUSMVMAI18", 12.505, 1,    7735.67,  -31.3,    1.0714, 2,    7713.12, -150.8,    1.0683, 3,    7657.78,   88.2,    1.0606
"BUSMVMAI14", 12.505, 1,    7735.45,  -31.3,    1.0714, 2,    7713.61, -150.8,    1.0684, 3,    7658.25,   88.2,    1.0607
"BUSMVMAI15", 12.505, 1,    7735.44,  -31.3,    1.0714, 2,    7713.57, -150.8,    1.0684, 3,    7658.27,   88.2,    1.0607
"BUSMVMAI16", 12.505, 1,    7735.44,  -31.3,    1.0714, 2,    7713.58, -150.8,    1.0684, 3,    7658.28,   88.2,    1.0607
"BUSMVMAI2166", 12.505, 2,    7713.57, -150.8,    1.0684, 0, 0, 0, 0, 0, 0, 0, 0
"BUSMVMAI2172", 12.505, 1,    7735.65,  -31.3,    1.0714, 0, 0, 0, 0, 0, 0, 0, 0
"BUSMVMAI864", 12.505, 3,    7662.56,   88.2,    1.0613, 0, 0, 0, 0, 0, 0, 0, 0
"BUSMVMAI865", 12.505, 3,     7662.5,   88.2,    1.0613, 0, 0, 0, 0, 0, 0, 0, 0
"BUSMVMAI17", 12.505, 1,    7735.44,  -31.3,    1.0714, 2,    7713.58, -150.8,    1.0684, 3,    7658.28,   88.2,    1.0607
"BUSMVMAI695", 12.505, 1,    7735.44,  -31.3,    1.0714, 2,    7713.58, -150.8,    1.0684, 3,    7658.28,   88.2,    1.0607
"BUSMVMAI866", 12.505, 3,     7662.5,   88.2,    1.0613, 0, 0, 0, 0, 0, 0, 0, 0
"BUSMVMAI2176", 12.505, 3,     7662.5,   88.2,    1.0613, 0, 0, 0, 0, 0, 0, 0, 0
"BUSMVMAI2177", 12.505, 3,     7662.5,   88.2,    1.0613, 0, 0, 0, 0, 0, 0, 0, 0
"BUSMVMAI2178", 12.505, 3,    7662.47,   88.2,    1.0613, 0, 0, 0, 0, 0, 0, 0, 0
"BUSMVMAI19", 12.505, 1,    7736.05,  -31.3,    1.0715, 2,    7712.13, -150.8,    1.0682, 3,    7656.99,   88.2,    1.0605
"BUSMVMAI20", 12.505, 1,     7736.6,  -31.3,    1.0716, 2,    7710.73, -150.8,     1.068, 3,    7655.89,   88.1,    1.0604
"BUSMVMAI53", 12.505, 1,    7736.05,  -31.3,    1.0715, 2,    7712.13, -150.8,    1.0682, 3,    7656.99,   88.2,    1.0605
"BUSMVMAI21", 12.505, 1,    7737.18,  -31.3,    1.0716, 2,    7709.26, -150.8,    1.0678, 3,    7654.73,   88.1,    1.0602
"BUSMVMAI22", 12.505, 1,    7737.85,  -31.3,    1.0717, 2,    7707.53, -150.9,    1.0675, 3,    7653.39,   88.1,      1.06
"BUSMVMAI23", 12.505, 1,    7737.18,  -31.3,    1.0716, 2,    7709.26, -150.8,    1.0678, 3,    7654.73,   88.1,    1.0602
"BUSMVMAI25", 12.505, 1,    7738.55,  -31.3,    1.0718, 2,    7705.73, -150.9,    1.0673, 3,    7652.01,   88.1,    1.0598
"BUSMVMAI52", 12.505, 1,    7737.85,  -31.3,    1.0717, 2,    7707.53, -150.9,    1.0675, 3,    7653.39,   88.1,      1.06
"BUSMVMAI54", 12.505, 1,    7737.85,  -31.3,    1.0717, 2,    7707.53, -150.9,    1.0675, 3,    7653.39,   88.1,      1.06
"BUSMVMAI55", 12.505, 1,    7737.85,  -31.3,    1.0717, 2,    7707.53, -150.9,    1.0675, 3,    7653.39,   88.1,      1.06
"BUSMVMAI696", 12.505, 1,    7737.18,  -31.3,    1.0716, 2,    7709.26, -150.8,    1.0678, 3,    7654.73,   88.1,    1.0602
"BUSMVMAI24", 12.505, 1,    7738.62,  -31.3,    1.0718, 2,    7705.56, -150.9,    1.0673, 3,    7651.87,   88.1,    1.0598
"BUSMVMAI26", 12.505, 1,    7739.31,  -31.3,    1.0719, 2,    7703.77, -150.9,     1.067, 3,     7650.5,   88.0,    1.0596
"BUSMVMAI49", 12.505, 1,    7738.55,  -31.3,    1.0718, 2,    7705.73, -150.9,    1.0673, 3,    7652.01,   88.1,    1.0598
"BUSMVMAI50", 12.505, 1,    7738.55,  -31.3,    1.0718, 2,    7705.74, -150.9,    1.0673, 3,       7652,   88.1,    1.0598
"BUSMVMAI27", 12.505, 1,     7739.3,  -31.3,    1.0719, 2,    7703.78, -150.9,     1.067, 3,    7650.49,   88.0,    1.0596
"BUSMVMAI28", 12.505, 1,    7739.86,  -31.3,     1.072, 2,    7702.39, -150.9,    1.0668, 3,    7649.46,   88.0,    1.0595
"BUSMVMAI29", 12.505, 1,    7739.29,  -31.3,    1.0719, 2,    7703.79, -150.9,     1.067, 3,    7650.48,   88.0,    1.0596
"BUSMVMAI31", 12.505, 1,    7740.48,  -31.3,    1.0721, 2,     7700.8, -150.9,    1.0666, 3,    7648.25,   88.0,    1.0593
"BUSMVMAI30", 12.505, 1,    7739.27,  -31.3,    1.0719, 2,     7703.8, -150.9,     1.067, 3,    7650.47,   88.0,    1.0596
"BUSMVMAI34", 12.505, 1,    7739.25,  -31.3,    1.0719, 2,    7703.81, -150.9,     1.067, 3,    7650.46,   88.0,    1.0596
"BUSMVMAI867", 12.505, 1,    7740.44,  -31.3,    1.0721, 0, 0, 0, 0, 0, 0, 0, 0
"BUSMVMAI43", 12.505, 1,     7740.5,  -31.3,    1.0721, 2,    7700.76, -150.9,    1.0666, 3,    7648.22,   88.0,    1.0593
"BUSMVMAI871", 12.505, 2,    7700.79, -150.9,    1.0666, 0, 0, 0, 0, 0, 0, 0, 0
"BUSMVMAI33", 12.505, 1,    7740.69,  -31.3,    1.0721, 2,     7700.3, -150.9,    1.0665, 3,    7647.88,   88.0,    1.0593
"BUSMVMAI32", 12.505, 1,    7741.24,  -31.3,    1.0722, 2,    7698.92, -150.9,    1.0663, 3,    7646.87,   88.0,    1.0591
"BUSMVMAI37", 12.505, 1,    7741.96,  -31.3,    1.0723, 2,    7697.05, -150.9,    1.0661, 3,    7645.53,   87.9,    1.0589
"BUSMVMAI44", 12.505, 1,    7740.51,  -31.3,    1.0721, 2,    7700.72, -150.9,    1.0666, 3,    7648.19,   88.0,    1.0593
"BUSMVMAI35", 12.505, 1,    7739.25,  -31.3,    1.0719, 2,    7703.81, -150.9,     1.067, 3,    7650.46,   88.0,    1.0596
"BUSMVMAI36", 12.505, 1,    7739.25,  -31.3,    1.0719, 2,    7703.81, -150.9,     1.067, 3,    7650.45,   88.0,    1.0596
"BUSMVMAI869", 12.505, 1,    7740.44,  -31.3,    1.0721, 0, 0, 0, 0, 0, 0, 0, 0
"BUSMVMAI38", 12.505, 1,    7742.54,  -31.3,    1.0724, 2,    7695.57, -150.9,    1.0659, 3,    7644.47,   87.9,    1.0588
"BUSMVMAI2181", 12.505, 1,    7741.96,  -31.3,    1.0723, 0, 0, 0, 0, 0, 0, 0, 0
"BUSMVMAI868", 12.505, 1,    7740.37,  -31.3,    1.0721, 0, 0, 0, 0, 0, 0, 0, 0
"BUSMVMAI870", 12.505, 1,    7740.29,  -31.3,    1.0721, 0, 0, 0, 0, 0, 0, 0, 0
"BUSMVMAI39", 12.505, 1,    7742.56,  -31.3,    1.0724, 2,    7695.56, -150.9,    1.0659, 3,    7644.44,   87.9,    1.0588
"BUSMVMAI40", 12.505, 1,    7743.09,  -31.3,    1.0724, 2,    7694.11, -150.9,    1.0657, 3,    7643.45,   87.9,    1.0587
"BUSMVMAI697", 12.505, 1,    7742.58,  -31.3,    1.0724, 2,    7695.57, -150.9,    1.0659, 3,    7644.33,   87.9,    1.0588
"BUSMVMAI41", 12.505, 1,    7743.72,  -31.3,    1.0725, 2,    7692.43, -150.9,    1.0654, 3,    7642.26,   87.9,    1.0585
"BUSMVMAI42", 12.505, 1,    7743.77,  -31.3,    1.0725, 2,    7692.41, -150.9,    1.0654, 3,    7642.21,   87.9,    1.0585
"BUSMVMAI48", 12.505, 1,     7744.2,  -31.3,    1.0726, 2,    7691.07, -150.9,    1.0652, 3,    7641.33,   87.9,    1.0584
"BUSMVMAI303", 12.505, 1,    7743.96,  -31.3,    1.0726, 2,    7691.75, -150.9,    1.0653, 3,     7641.8,   87.9,    1.0584
"BUSMVMAI45", 12.505, 1,    7743.78,  -31.3,    1.0725, 2,     7692.4, -150.9,    1.0654, 3,    7642.19,   87.9,    1.0585
"BUSMVMAI701", 12.505, 1,    7743.79,  -31.3,    1.0725, 2,     7692.4, -150.9,    1.0654, 3,    7642.15,   87.9,    1.0585
"BUSMVMAI47", 12.505, 1,    7736.14,  -31.2,    1.0715, 2,    7720.79, -150.8,    1.0694, 3,     7667.9,   88.3,     1.062
"BUSMVMAI179", 12.505, 1,    7736.08,  -31.2,    1.0715, 2,    7720.58, -150.8,    1.0693, 3,    7667.47,   88.3,     1.062
"BUSMVMAI160", 12.505, 1,    7736.47,  -31.2,    1.0715, 2,    7721.82, -150.8,    1.0695, 3,    7669.97,   88.3,    1.0623
"BUSMVMAI1103", 12.505, 1,    7744.15,  -31.3,    1.0726, 0, 0, 0, 0, 0, 0, 0, 0
"BUSMVMAI259", 12.505, 1,    7744.48,  -31.3,    1.0726, 2,    7690.36, -150.9,    1.0651, 3,    7640.89,   87.9,    1.0583
"BUSMVMAI304", 12.505, 1,     7744.2,  -31.3,    1.0726, 2,    7691.07, -150.9,    1.0652, 3,    7641.33,   87.9,    1.0584
"BUSMVMAI702", 12.505, 1,    7738.55,  -31.3,    1.0718, 2,    7705.74, -150.9,    1.0673, 3,       7652,   88.1,    1.0598
"BUSMVMAI58", 12.505, 1,    7733.13,  -31.3,    1.0711, 2,    7717.15, -150.8,    1.0689, 3,    7660.06,   88.2,    1.0609
"BUSMVMAI57", 12.505, 1,    7731.46,  -31.3,    1.0708, 2,    7717.43, -150.8,    1.0689, 3,    7659.05,   88.2,    1.0608
"BUSMVMAI60", 12.505, 1,    7730.77,  -31.3,    1.0707, 2,    7717.54, -150.8,    1.0689, 3,    7658.63,   88.2,    1.0608
"BUSMVMAI703", 12.505, 1,    7731.47,  -31.3,    1.0708, 2,    7717.43, -150.8,    1.0689, 3,    7659.04,   88.2,    1.0608
"BUSMVMAI123", 12.505, 1,    7733.54,  -31.3,    1.0711, 2,    7717.09, -150.8,    1.0688, 3,    7660.31,   88.2,     1.061
"BUSMVMAI59", 12.505, 1,    7729.81,  -31.3,    1.0706, 2,    7717.72, -150.8,    1.0689, 3,    7658.18,   88.2,    1.0607
"BUSMVMAI61", 12.505, 1,     7728.2,  -31.3,    1.0704, 2,    7718.01, -150.8,     1.069, 3,    7657.41,   88.2,    1.0606
"BUSMVMAI63", 12.505, 1,     7730.8,  -31.3,    1.0707, 2,    7717.52, -150.8,    1.0689, 3,    7658.58,   88.2,    1.0607
"BUSMVMAI874", 12.505, 3,    7658.63,   88.2,    1.0608, 0, 0, 0, 0, 0, 0, 0, 0
"BUSMVMAI62", 12.505, 1,    7726.67,  -31.3,    1.0702, 2,    7718.22, -150.8,     1.069, 3,    7656.66,   88.2,    1.0605
"BUSMVMAI64", 12.505, 1,    7725.01,  -31.3,    1.0699, 2,    7718.47, -150.8,     1.069, 3,     7656.1,   88.2,    1.0604
"BUSMVMAI942", 12.505, 3,    7656.66,   88.2,    1.0605, 0, 0, 0, 0, 0, 0, 0, 0
"BUSMVMAI873", 12.505, 3,    7656.65,   88.2,    1.0605, 0, 0, 0, 0, 0, 0, 0, 0
"BUSMVMAI872", 12.505, 3,    7656.37,   88.2,    1.0604, 0, 0, 0, 0, 0, 0, 0, 0
"BUSMVMAI880", 12.505, 3,    7656.36,   88.2,    1.0604, 0, 0, 0, 0, 0, 0, 0, 0
"BUSMVMAI945", 12.505, 3,    7658.57,   88.2,    1.0607, 0, 0, 0, 0, 0, 0, 0, 0
"BUSMVMAI65", 12.505, 1,    7723.31,  -31.4,    1.0697, 2,    7718.67, -150.8,    1.0691, 3,    7655.49,   88.2,    1.0603
"BUSMVMAI66", 12.505, 1,     7721.6,  -31.4,    1.0695, 2,    7718.87, -150.8,    1.0691, 3,    7654.88,   88.2,    1.0602
"BUSMVMAI67", 12.505, 1,    7719.74,  -31.4,    1.0692, 2,    7719.08, -150.9,    1.0691, 3,    7654.22,   88.2,    1.0601
"BUSMVMAI878", 12.505, 1,    7719.69,  -31.4,    1.0692, 0, 0, 0, 0, 0, 0, 0, 0
"BUSMVMAI68", 12.505, 1,    7718.34,  -31.4,     1.069, 2,    7719.23, -150.9,    1.0691, 3,    7653.73,   88.2,    1.0601
"BUSMVMAI706", 12.505, 1,    7719.74,  -31.4,    1.0692, 2,    7719.09, -150.9,    1.0691, 3,    7654.22,   88.2,    1.0601
"BUSMVMAI876", 12.505, 3,    7658.56,   88.2,    1.0607, 0, 0, 0, 0, 0, 0, 0, 0
"BUSMVMAI875", 12.505, 3,    7658.36,   88.2,    1.0607, 0, 0, 0, 0, 0, 0, 0, 0
"BUSMVMAI877", 12.505, 3,    7658.29,   88.2,    1.0607, 0, 0, 0, 0, 0, 0, 0, 0
"BUSMVMAI883", 12.505, 3,    7658.13,   88.2,    1.0607, 0, 0, 0, 0, 0, 0, 0, 0
"BUSMVMAI884", 12.505, 3,    7658.28,   88.2,    1.0607, 0, 0, 0, 0, 0, 0, 0, 0
"BUSMVMAI886", 12.505, 3,    7658.28,   88.2,    1.0607, 0, 0, 0, 0, 0, 0, 0, 0
"BUSMVMAI885", 12.505, 1,     7719.6,  -31.4,    1.0692, 0, 0, 0, 0, 0, 0, 0, 0
"BUSMVMAI879", 12.505, 3,    7655.96,   88.2,    1.0604, 0, 0, 0, 0, 0, 0, 0, 0
"BUSMVMAI881", 12.505, 3,    7655.94,   88.2,    1.0604, 0, 0, 0, 0, 0, 0, 0, 0
"BUSMVMAI888", 12.505, 3,    7655.92,   88.2,    1.0604, 0, 0, 0, 0, 0, 0, 0, 0
"BUSMVMAI882", 12.505, 3,    7655.93,   88.2,    1.0604, 0, 0, 0, 0, 0, 0, 0, 0
"BUSMVMAI944", 12.505, 3,    7655.92,   88.2,    1.0604, 0, 0, 0, 0, 0, 0, 0, 0
"BUSMVMAI889", 12.505, 3,    7657.99,   88.2,    1.0607, 0, 0, 0, 0, 0, 0, 0, 0
"BUSMVMAI2183", 12.505, 3,    7658.27,   88.2,    1.0607, 0, 0, 0, 0, 0, 0, 0, 0
"BUSMVMAI2184", 12.505, 3,    7658.28,   88.2,    1.0607, 0, 0, 0, 0, 0, 0, 0, 0
"BUSMVMAI71", 12.505, 1,    7717.01,  -31.4,    1.0688, 2,    7719.33, -150.9,    1.0692, 3,    7653.26,   88.2,      1.06
"BUSMVMAI2182", 12.505, 1,    7719.59,  -31.4,    1.0692, 0, 0, 0, 0, 0, 0, 0, 0
"BUSMVMAI2185", 12.505, 1,     7719.6,  -31.4,    1.0692, 0, 0, 0, 0, 0, 0, 0, 0
"BUSMVMAI2186", 12.505, 1,    7719.54,  -31.4,    1.0692, 0, 0, 0, 0, 0, 0, 0, 0
"BUSMVMAI887", 12.505, 3,    7658.27,   88.2,    1.0607, 0, 0, 0, 0, 0, 0, 0, 0
"BUSMVMAI892", 12.505, 3,    7658.26,   88.2,    1.0607, 0, 0, 0, 0, 0, 0, 0, 0
"BUSMVMAI897", 12.505, 3,    7655.86,   88.2,    1.0604, 0, 0, 0, 0, 0, 0, 0, 0
"BUSMVMAI890", 12.505, 3,    7657.87,   88.2,    1.0606, 0, 0, 0, 0, 0, 0, 0, 0
"BUSMVMAI891", 12.505, 3,    7657.79,   88.2,    1.0606, 0, 0, 0, 0, 0, 0, 0, 0
"BUSMVMAI896", 12.505, 3,    7657.76,   88.2,    1.0606, 0, 0, 0, 0, 0, 0, 0, 0
"BUSMVMAI893", 12.505, 3,    7658.25,   88.2,    1.0607, 0, 0, 0, 0, 0, 0, 0, 0
"BUSMVMAI894", 12.505, 3,    7658.23,   88.2,    1.0607, 0, 0, 0, 0, 0, 0, 0, 0
"BUSMVMAI895", 12.505, 3,    7658.23,   88.2,    1.0607, 0, 0, 0, 0, 0, 0, 0, 0
"BUSMVMAI898", 12.505, 3,    7658.23,   88.2,    1.0607, 0, 0, 0, 0, 0, 0, 0, 0
"BUSMVMAI70", 12.505, 1,    7719.75,  -31.4,    1.0692, 2,    7719.09, -150.9,    1.0691, 3,    7654.17,   88.2,    1.0601
"BUSMVMAI69", 12.505, 1,    7719.75,  -31.4,    1.0692, 2,    7719.09, -150.9,    1.0691, 3,    7654.17,   88.2,    1.0601
"BUSMVMAI708", 12.505, 1,    7719.75,  -31.4,    1.0692, 2,    7719.09, -150.9,    1.0691, 3,    7654.18,   88.2,    1.0601
"BUSMVMAI72", 12.505, 1,    7715.26,  -31.4,    1.0686, 2,    7719.47, -150.9,    1.0692, 3,    7652.64,   88.2,    1.0599
"BUSMVMAI73", 12.505, 1,    7713.57,  -31.4,    1.0684, 2,    7719.63, -150.9,    1.0692, 3,    7652.18,   88.2,    1.0599
"BUSMVMAI134", 12.505, 1,    7715.26,  -31.4,    1.0686, 2,    7719.47, -150.9,    1.0692, 3,    7652.64,   88.2,    1.0599
"BUSMVMAI900", 12.505, 3,     7655.8,   88.2,    1.0604, 0, 0, 0, 0, 0, 0, 0, 0
"BUSMVMAI904", 12.505, 3,    7658.22,   88.2,    1.0607, 0, 0, 0, 0, 0, 0, 0, 0
"BUSMVMAI75", 12.505, 1,    7712.74,  -31.4,    1.0682, 2,    7719.75, -150.9,    1.0692, 3,    7651.92,   88.2,    1.0598
"BUSMVMAI718", 12.505, 1,    7713.57,  -31.4,    1.0684, 2,    7719.63, -150.9,    1.0692, 3,    7652.18,   88.2,    1.0599
"BUSMVMAI899", 12.505, 3,     7655.8,   88.2,    1.0604, 0, 0, 0, 0, 0, 0, 0, 0
"BUSMVMAI902", 12.505, 3,    7655.77,   88.2,    1.0604, 0, 0, 0, 0, 0, 0, 0, 0
"BUSMVMAI901", 12.505, 3,    7655.75,   88.2,    1.0604, 0, 0, 0, 0, 0, 0, 0, 0
"BUSMVMAI903", 12.505, 3,    7655.71,   88.2,    1.0603, 0, 0, 0, 0, 0, 0, 0, 0
"BUSMVMAI905", 12.505, 3,    7655.67,   88.2,    1.0603, 0, 0, 0, 0, 0, 0, 0, 0
"BUSMVMAI907", 12.505, 3,    7655.71,   88.2,    1.0603, 0, 0, 0, 0, 0, 0, 0, 0
"BUSMVMAI906", 12.505, 3,    7655.67,   88.2,    1.0603, 0, 0, 0, 0, 0, 0, 0, 0
"BUSMVMAI946", 12.505, 3,    7655.67,   88.2,    1.0603, 0, 0, 0, 0, 0, 0, 0, 0
"BUSMVMAI74", 12.505, 1,    7712.74,  -31.4,    1.0682, 2,    7719.75, -150.9,    1.0692, 3,    7651.92,   88.2,    1.0598
"BUSMVMAI76", 12.505, 1,    7712.61,  -31.4,    1.0682, 2,    7719.83, -150.9,    1.0692, 3,    7651.86,   88.2,    1.0598
"BUSMVMAI77", 12.505, 1,    7712.24,  -31.4,    1.0682, 2,    7719.77, -150.9,    1.0692, 3,    7651.78,   88.2,    1.0598
"BUSMVMAI79", 12.505, 1,     7712.6,  -31.4,    1.0682, 2,    7719.84, -150.9,    1.0692, 3,    7651.86,   88.2,    1.0598
"BUSMVMAI81", 12.505, 1,    7712.22,  -31.4,    1.0682, 2,    7719.66, -150.9,    1.0692, 3,    7651.82,   88.2,    1.0598
"BUSMVMAI91", 12.505, 1,    7710.97,  -31.4,     1.068, 2,    7719.92, -150.9,    1.0692, 3,    7651.37,   88.2,    1.0597
"BUSMVMAI78", 12.505, 1,    7712.39,  -31.4,    1.0682, 2,    7719.99, -150.9,    1.0693, 3,    7651.76,   88.2,    1.0598
"BUSMVMAI80", 12.505, 1,    7712.18,  -31.4,    1.0682, 2,    7720.13, -150.9,    1.0693, 3,    7651.65,   88.2,    1.0598
"BUSMVMAI908", 12.505, 1,    7712.06,  -31.4,    1.0682, 0, 0, 0, 0, 0, 0, 0, 0
"BUSMVMAI89", 12.505, 1,    7712.13,  -31.4,    1.0682, 2,    7720.17, -150.9,    1.0693, 3,    7651.61,   88.2,    1.0598
"BUSMVMAI949", 12.505, 3,    7655.71,   88.2,    1.0603, 0, 0, 0, 0, 0, 0, 0, 0
"BUSMVMAI82", 12.505, 1,     7712.2,  -31.4,    1.0682, 2,    7719.58, -150.9,    1.0692, 3,    7651.85,   88.2,    1.0598
"BUSMVMAI83", 12.505, 1,     7712.2,  -31.4,    1.0682, 2,    7719.58, -150.9,    1.0692, 3,    7651.84,   88.2,    1.0598
"BUSMVMAI86", 12.505, 1,    7712.21,  -31.4,    1.0682, 2,    7719.57, -150.9,    1.0692, 3,    7651.82,   88.2,    1.0598
"BUSMVMAI85", 12.505, 1,    7713.55,  -31.4,    1.0684, 2,    7719.55, -150.9,    1.0692, 3,    7652.19,   88.2,    1.0599
"BUSMVMAI84", 12.505, 1,    7713.49,  -31.4,    1.0684, 2,    7719.49, -150.9,    1.0692, 3,    7652.23,   88.2,    1.0599
"BUSMVMAI93", 12.505, 1,    7713.46,  -31.4,    1.0683, 2,    7719.45, -150.9,    1.0692, 3,    7652.25,   88.2,    1.0599
"BUSMVMAI2198", 12.505, 2,    7719.49, -150.9,    1.0692, 0, 0, 0, 0, 0, 0, 0, 0
"BUSMVMAI709", 12.505, 1,    7713.57,  -31.4,    1.0684, 2,    7719.63, -150.9,    1.0692, 3,    7652.18,   88.2,    1.0599
"BUSMVMAI88", 12.505, 1,    7712.22,  -31.4,    1.0682, 2,    7719.56, -150.9,    1.0692, 3,    7651.81,   88.2,    1.0598
"BUSMVMAI87", 12.505, 1,    7712.24,  -31.4,    1.0682, 2,    7719.55, -150.9,    1.0692, 3,    7651.79,   88.2,    1.0598
"BUSMVMAI99", 12.505, 1,    7712.24,  -31.4,    1.0682, 2,    7719.55, -150.9,    1.0692, 3,    7651.79,   88.2,    1.0598
"BUSMVMAI722", 12.505, 1,    7712.24,  -31.4,    1.0682, 2,    7719.55, -150.9,    1.0692, 3,    7651.79,   88.2,    1.0598
"BUSMVMAI909", 12.505, 1,    7711.93,  -31.4,    1.0681, 0, 0, 0, 0, 0, 0, 0, 0
"BUSMVMAI90", 12.505, 1,    7712.11,  -31.4,    1.0682, 2,    7720.19, -150.9,    1.0693, 3,    7651.57,   88.2,    1.0598
"BUSMVMAI102", 12.505, 1,    7712.09,  -31.4,    1.0682, 2,    7720.21, -150.9,    1.0693, 3,    7651.52,   88.2,    1.0598
"BUSMVMAI92", 12.505, 1,    7709.87,  -31.4,    1.0678, 2,    7720.05, -150.9,    1.0693, 3,    7651.01,   88.3,    1.0597
"BUSMVMAI132", 12.505, 1,    7710.97,  -31.4,     1.068, 2,    7719.92, -150.9,    1.0692, 3,    7651.37,   88.2,    1.0597
"BUSMVMAI98", 12.505, 1,    7709.87,  -31.4,    1.0678, 2,    7720.05, -150.9,    1.0693, 3,    7651.01,   88.3,    1.0597
"BUSMVMAI100", 12.505, 1,    7708.45,  -31.4,    1.0677, 2,    7720.29, -150.9,    1.0693, 3,    7650.53,   88.3,    1.0596
"BUSMVMAI723", 12.505, 1,    7709.87,  -31.4,    1.0678, 2,    7720.04, -150.9,    1.0693, 3,    7651.01,   88.3,    1.0597
"BUSMVMAI96", 12.505, 1,    7713.43,  -31.4,    1.0683, 2,    7719.42, -150.9,    1.0692, 3,    7652.27,   88.2,    1.0599
"BUSMVMAI916", 12.505, 1,    7713.45,  -31.4,    1.0683, 0, 0, 0, 0, 0, 0, 0, 0
"BUSMVMAI95", 12.505, 1,    7709.87,  -31.4,    1.0678, 2,    7719.99, -150.9,    1.0693, 3,    7651.01,   88.3,    1.0597
"BUSMVMAI94", 12.505, 1,    7709.85,  -31.4,    1.0678, 2,    7719.94, -150.9,    1.0692, 3,    7651.03,   88.3,    1.0597
"BUSMVMAI112", 12.505, 1,    7709.85,  -31.4,    1.0678, 2,    7719.94, -150.9,    1.0692, 3,    7651.02,   88.3,    1.0597
"BUSMVMAI126", 12.505, 1,    7709.87,  -31.4,    1.0678, 2,       7720, -150.9,    1.0693, 3,    7651.01,   88.3,    1.0597
"BUSMVMAI97", 12.505, 1,    7713.39,  -31.4,    1.0683, 2,    7719.37, -150.9,    1.0692, 3,     7652.3,   88.2,    1.0599
"BUSMVMAI711", 12.505, 1,    7713.43,  -31.4,    1.0683, 2,    7719.42, -150.9,    1.0692, 3,    7652.26,   88.2,    1.0599
"BUSMVMAI915", 12.505, 1,    7713.38,  -31.4,    1.0683, 0, 0, 0, 0, 0, 0, 0, 0
...
"BUSLVMAI1", 0.20785, 1,    127.316,   88.2,     1.061, 2,    127.332,  -91.8,    1.0611, 0, 0, 0, 0
"BUSLVMAI2", 0.20785, 1,    127.253,   88.2,    1.0604, 2,    127.266,  -91.8,    1.0605, 0, 0, 0, 0
"BUSLVMAI3", 0.20785, 1,    127.284,   88.2,    1.0607, 2,      127.3,  -91.8,    1.0608, 0, 0, 0, 0
"BUSLVMAI4", 0.20785, 1,    128.166,  -31.5,    1.0681, 2,    128.268,  148.5,    1.0689, 0, 0, 0, 0
"BUSLVMAI5", 0.20785, 1,    127.607, -151.0,    1.0634, 2,    127.659,   29.0,    1.0638, 0, 0, 0, 0
"BUSLVMAI6", 0.20785, 1,    127.115,   88.0,    1.0593, 2,    127.131,  -92.0,    1.0594, 0, 0, 0, 0
"BUSLVMAI7", 0.20785, 1,    127.321,   88.2,     1.061, 2,    127.336,  -91.8,    1.0611, 0, 0, 0, 0
"BUSLVMAI8", 0.20785, 1,    126.888,   88.1,    1.0574, 2,     126.91,  -91.9,    1.0576, 0, 0, 0, 0
"BUSLVMAI9", 0.20785, 1,    126.724,   87.8,     1.056, 2,    126.737,  -92.2,    1.0561, 0, 0, 0, 0
"BUSLVMAI10", 0.20785, 1,    126.801,   87.8,    1.0567, 2,    126.814,  -92.2,    1.0568, 0, 0, 0, 0
"BUSLVMAI11", 0.20785, 1,    128.143, -150.8,    1.0679, 2,    128.156,   29.1,     1.068, 0, 0, 0, 0
"BUSLVMAI12", 0.20785, 1,    128.118, -150.9,    1.0677, 2,    128.134,   29.1,    1.0678, 0, 0, 0, 0
"BUSLVMAI13", 0.20785, 1,    128.506,  -31.3,    1.0709, 2,    128.522,  148.7,     1.071, 0, 0, 0, 0
"BUSLVMAI14", 0.20785, 1,    128.597,  -31.3,    1.0716, 2,    128.613,  148.7,    1.0718, 0, 0, 0, 0
"BUSLVMAI15", 0.20785, 1,    128.546,  -31.3,    1.0712, 2,    128.559,  148.7,    1.0713, 0, 0, 0, 0
"BUSLVMAI16", 0.20785, 1,    127.289,   88.2,    1.0607, 2,    127.306,  -91.8,    1.0609, 0, 0, 0, 0
"BUSLVMAI17", 0.20785, 1,    125.718,   87.6,    1.0476, 2,     125.76,  -92.4,     1.048, 0, 0, 0, 0
"BUSLVMAI18", 0.20785, 1,    127.186,   88.1,    1.0599, 2,    127.202,  -91.9,      1.06, 0, 0, 0, 0
"BUSLVMAI19", 0.20785, 1,     127.31,   88.2,    1.0609, 2,    127.323,  -91.8,     1.061, 0, 0, 0, 0
"BUSLVMAI20", 0.20785, 1,    127.536, -151.0,    1.0628, 2,    127.578,   29.0,    1.0631, 0, 0, 0, 0
"BUSLVMAI21", 0.20785, 1,    127.317,   88.2,     1.061, 2,    127.332,  -91.8,    1.0611, 0, 0, 0, 0
"BUSLVMAI22", 0.20785, 1,    128.404,  -31.4,      1.07, 2,    128.484,  148.6,    1.0707, 0, 0, 0, 0
"BUSLVMAI23", 0.20785, 1,    127.283,   88.2,    1.0607, 2,    127.299,  -91.8,    1.0608, 0, 0, 0, 0
"BUSLVMAI24", 0.20785, 1,    127.291,   88.2,    1.0608, 2,    127.306,  -91.8,    1.0609, 0, 0, 0, 0
"BUSLVMAI25", 0.20785, 1,    127.223,   88.2,    1.0602, 2,    127.239,  -91.8,    1.0603, 0, 0, 0, 0
"BUSLVMAI26", 0.20785, 1,    128.096, -150.9,    1.0675, 2,    128.112,   29.1,    1.0676, 0, 0, 0, 0
"BUSLVMAI27", 0.20785, 1,    128.167, -150.8,    1.0681, 2,    128.184,   29.2,    1.0682, 0, 0, 0, 0
"BUSLVMAI28", 0.20785, 1,    127.186,   88.1,    1.0599, 2,    127.202,  -91.9,      1.06, 0, 0, 0, 0
"BUSLVMAI29", 0.20785, 1,    126.408,   87.6,    1.0534, 2,    126.423,  -92.4,    1.0535, 0, 0, 0, 0
"BUSLVMAI30", 0.20785, 1,    127.958, -150.9,    1.0663, 2,    127.972,   29.1,    1.0664, 0, 0, 0, 0
"BUSLVMAI31", 0.20785, 1,    127.287,   88.2,    1.0607, 2,    127.302,  -91.8,    1.0609, 0, 0, 0, 0
"BUSLVMAI32", 0.20785, 1,    127.962,  -31.5,    1.0663, 2,    127.975,  148.5,    1.0665, 0, 0, 0, 0
"BUSLVMAI33", 0.20785, 1,    127.149,   88.1,    1.0596, 2,    127.162,  -91.9,    1.0597, 0, 0, 0, 0
"BUSLVMAI34", 0.20785, 1,     125.09,   87.7,    1.0424, 2,    125.198,  -92.3,    1.0433, 0, 0, 0, 0
"BUSLVMAI35", 0.20785, 1,     127.21,   88.2,    1.0601, 2,    127.224,  -91.8,    1.0602, 0, 0, 0, 0
"BUSLVMAI36", 0.20785, 1,    127.209,   88.2,    1.0601, 2,    127.223,  -91.8,    1.0602, 0, 0, 0, 0
"BUSLVMAI37", 0.20785, 1,    127.196,   88.2,      1.06, 2,    127.212,  -91.8,    1.0601, 0, 0, 0, 0
"BUSLVMAI38", 0.20785, 1,    125.655, -151.4,    1.0471, 2,    125.672,   28.5,    1.0473, 0, 0, 0, 0
"BUSLVMAI39", 0.20785, 1,    128.122, -150.9,    1.0677, 2,    128.136,   29.1,    1.0678, 0, 0, 0, 0
"BUSLVMAI40", 0.20785, 1,    126.918,   88.1,    1.0577, 2,     126.96,  -91.9,     1.058, 0, 0, 0, 0
"BUSLVMAI41", 0.20785, 1,    128.141,  -31.4,    1.0678, 2,    128.157,  148.6,     1.068, 0, 0, 0, 0
"BUSLVMAI42", 0.20785, 1,     128.21,  -31.4,    1.0684, 2,    128.226,  148.6,    1.0685, 0, 0, 0, 0
"BUSLVMAI43", 0.20785, 1,    128.212,  -31.4,    1.0684, 2,    128.228,  148.6,    1.0686, 0, 0, 0, 0
"BUSLVMAI44", 0.20785, 1,    127.036,   88.2,    1.0586, 2,    127.067,  -91.8,    1.0589, 0, 0, 0, 0
"BUSLVMAI45", 0.20785, 1,    126.957,   88.2,     1.058, 2,    126.971,  -91.9,    1.0581, 0, 0, 0, 0
"BUSLVMAI46", 0.20785, 1,    127.145,   88.3,    1.0595, 2,    127.161,  -91.8,    1.0597, 0, 0, 0, 0
"BUSLVMAI47", 0.20785, 1,    127.212,   88.2,    1.0601, 2,    127.227,  -91.8,    1.0602, 0, 0, 0, 0
"BUSLVMAI48", 0.20785, 1,    126.769,   88.0,    1.0564, 2,    126.816,  -92.0,    1.0568, 0, 0, 0, 0
"BUSLVMAI49", 0.20785, 1,    128.162,  -31.4,     1.068, 2,    128.177,  148.6,    1.0681, 0, 0, 0, 0
"BUSLVMAI50", 0.20785, 1,     126.49, -151.4,    1.0541, 2,    126.571,   28.6,    1.0548, 0, 0, 0, 0
"BUSLVMAI51", 0.20785, 1,    127.265,  -31.7,    1.0605, 2,    127.281,  148.3,    1.0607, 0, 0, 0, 0
"BUSLVMAI52", 0.20785, 1,    127.221,   88.2,    1.0602, 2,    127.234,  -91.8,    1.0603, 0, 0, 0, 0
"BUSLVMAI53", 0.20785, 1,    127.204,   88.2,      1.06, 2,    127.219,  -91.8,    1.0602, 0, 0, 0, 0
"BUSLVMAI54", 0.20785, 1,    126.729,   88.1,    1.0561, 2,    126.745,  -91.9,    1.0562, 0, 0, 0, 0
"BUSLVMAI55", 0.20785, 1,     128.22,  -31.4,    1.0685, 2,    128.236,  148.6,    1.0686, 0, 0, 0, 0
"BUSLVMAI56", 0.20785, 1,      127.1,   88.2,    1.0592, 2,    127.113,  -91.8,    1.0593, 0, 0, 0, 0
"BUSLVMAI57", 0.20785, 1,    127.124,   88.3,    1.0594, 2,     127.14,  -91.7,    1.0595, 0, 0, 0, 0
"BUSLVMAI58", 0.20785, 1,    127.219,   88.2,    1.0602, 2,    127.233,  -91.8,    1.0603, 0, 0, 0, 0
"BUSLVMAI59", 0.20785, 1,    128.162,  -31.4,     1.068, 2,    128.177,  148.6,    1.0681, 0, 0, 0, 0
"BUSLVMAI60", 0.20785, 1,    128.111,  -31.5,    1.0676, 2,    128.124,  148.5,    1.0677, 0, 0, 0, 0
"BUSLVMAI61", 0.20785, 1,    126.352,  -32.2,    1.0529, 2,     126.37,  147.8,    1.0531, 0, 0, 0, 0
"BUSLVMAI62", 0.20785, 1,    128.145, -150.9,    1.0679, 2,     128.16,   29.1,     1.068, 0, 0, 0, 0
"BUSLVMAI63", 0.20785, 1,    127.579,  -31.6,    1.0632, 2,    127.599,  148.4,    1.0633, 0, 0, 0, 0
"BUSLVMAI64", 0.20785, 1,    128.161, -150.9,     1.068, 2,    128.175,   29.1,    1.0681, 0, 0, 0, 0
"BUSLVMAI65", 0.20785, 1,    128.141,  -31.4,    1.0678, 2,    128.155,  148.6,     1.068, 0, 0, 0, 0
"BUSLVMAI66", 0.20785, 1,    127.209,   88.2,    1.0601, 2,    127.223,  -91.8,    1.0602, 0, 0, 0, 0
"BUSLVMAI67", 0.20785, 1,    127.789,  -31.5,    1.0649, 2,    127.805,  148.5,     1.065, 0, 0, 0, 0
"BUSLVMAI68", 0.20785, 1,    127.764,  -31.6,    1.0647, 2,    127.777,  148.4,    1.0648, 0, 0, 0, 0
"BUSLVMAI69", 0.20785, 1,    127.213,   88.2,    1.0601, 2,    127.226,  -91.8,    1.0602, 0, 0, 0, 0
"BUSLVMAI70", 0.20785, 1,    126.897,   88.1,    1.0575, 2,     126.92,  -91.9,    1.0577, 0, 0, 0, 0
"BUSLVMAI71", 0.20785, 1,    127.734,  -31.6,    1.0645, 2,    127.749,  148.4,    1.0646, 0, 0, 0, 0
"BUSLVMAI72", 0.20785, 1,    128.091,  -31.4,    1.0674, 2,    128.104,  148.5,    1.0675, 0, 0, 0, 0
"BUSLVMAI73", 0.20785, 1,    128.084,  -31.4,    1.0674, 2,    128.097,  148.6,    1.0675, 0, 0, 0, 0
"BUSLVMAI74", 0.20785, 1,    128.161,  -31.4,     1.068, 2,    128.176,  148.6,    1.0681, 0, 0, 0, 0
"BUSLVMAI75", 0.20785, 1,    127.937, -151.0,    1.0661, 2,    127.952,   29.0,    1.0663, 0, 0, 0, 0
"BUSLVMAI76", 0.20785, 1,     127.21,   88.2,    1.0601, 2,    127.223,  -91.8,    1.0602, 0, 0, 0, 0
"BUSLVMAI77", 0.20785, 1,    127.387,  -31.7,    1.0616, 2,    127.401,  148.3,    1.0617, 0, 0, 0, 0
"BUSLVMAI78", 0.20785, 1,    128.124,  -31.4,    1.0677, 2,    128.137,  148.6,    1.0678, 0, 0, 0, 0
"BUSLVMAI79", 0.20785, 1,    127.131,   88.3,    1.0594, 2,    127.145,  -91.7,    1.0595, 0, 0, 0, 0
"BUSLVMAI80", 0.20785, 1,    125.974,   87.7,    1.0498, 2,        126,  -92.3,      1.05, 0, 0, 0, 0
"BUSLVMAI81", 0.20785, 1,    127.209,   88.2,    1.0601, 2,    127.223,  -91.8,    1.0602, 0, 0, 0, 0
"BUSLVMAI82", 0.20785, 1,    127.132,   88.2,    1.0594, 2,    127.148,  -91.8,    1.0596, 0, 0, 0, 0
"BUSLVMAI83", 0.20785, 1,    127.848,  -31.6,    1.0654, 2,     127.87,  148.4,    1.0656, 0, 0, 0, 0
"BUSLVMAI84", 0.20785, 1,    127.193,   88.3,    1.0599, 2,    127.207,  -91.7,    1.0601, 0, 0, 0, 0
"BUSLVMAI85", 0.20785, 1,    128.255, -150.9,    1.0688, 2,    128.283,   29.1,     1.069, 0, 0, 0, 0
"BUSLVMAI86", 0.20785, 1,    127.877,  -31.5,    1.0656, 2,    127.916,  148.5,     1.066, 0, 0, 0, 0
"BUSLVMAI87", 0.20785, 1,    128.285,  -31.3,     1.069, 2,    128.319,  148.7,    1.0693, 0, 0, 0, 0
"BUSLVMAI88", 0.20785, 1,    127.252,   88.2,    1.0604, 2,    127.265,  -91.8,    1.0605, 0, 0, 0, 0
"BUSLVMAI89", 0.20785, 1,     127.21,   88.2,    1.0601, 2,    127.223,  -91.8,    1.0602, 0, 0, 0, 0
"BUSLVMAI90", 0.20785, 1,    126.752,   88.1,    1.0563, 2,    126.768,  -91.9,    1.0564, 0, 0, 0, 0
"BUSLVMAI91", 0.20785, 1,    127.224,   88.2,    1.0602, 2,    127.239,  -91.8,    1.0603, 0, 0, 0, 0
"BUSLVMAI92", 0.20785, 1,    127.684,  -31.6,     1.064, 2,    127.706,  148.4,    1.0642, 0, 0, 0, 0
"BUSLVMAI93", 0.20785, 1,    126.967,   88.2,    1.0581, 2,    126.983,  -91.8,    1.0582, 0, 0, 0, 0
"BUSLVMAI94", 0.20785, 1,    127.108,   88.2,    1.0592, 2,    127.122,  -91.8,    1.0593, 0, 0, 0, 0
"BUSLVMAI95", 0.20785, 1,    127.124,   88.3,    1.0594, 2,    127.139,  -91.7,    1.0595, 0, 0, 0, 0
"BUSLVMAI96", 0.20785, 1,    127.236,   88.2,    1.0603, 2,     127.25,  -91.8,    1.0604, 0, 0, 0, 0
"BUSLVMAI97", 0.20785, 1,    128.262, -150.9,    1.0689, 2,    128.278,   29.1,     1.069, 0, 0, 0, 0
"BUSLVMAI98", 0.20785, 1,    128.262, -150.9,    1.0689, 2,    128.278,   29.1,     1.069, 0, 0, 0, 0
"BUSLVMAI99", 0.20785, 1,    127.241,   88.2,    1.0603, 2,    127.256,  -91.8,    1.0605, 0, 0, 0, 0
"BUSLVMAI100", 0.20785, 1,    127.225,   88.2,    1.0602, 2,     127.24,  -91.8,    1.0603, 0, 0, 0, 0
"BUSLVMAI101", 0.20785, 1,    127.122,   88.3,    1.0593, 2,    127.138,  -91.7,    1.0595, 0, 0, 0, 0
"BUSLVMAI102", 0.20785, 1,    127.206,   88.2,    1.0601, 2,    127.223,  -91.8,    1.0602, 0, 0, 0, 0
"BUSLVMAI103", 0.20785, 1,    127.077,   88.2,     1.059, 2,    127.093,  -91.8,    1.0591, 0, 0, 0, 0
"BUSLVMAI104", 0.20785, 1,     127.07,   88.2,    1.0589, 2,    127.084,  -91.8,     1.059, 0, 0, 0, 0
"BUSLVMAI105", 0.20785, 1,    126.939,   88.2,    1.0578, 2,    126.953,  -91.8,    1.0579, 0, 0, 0, 0
"BUSLVMAI106", 0.20785, 1,     128.11,  -31.4,    1.0676, 2,    128.123,  148.6,    1.0677, 0, 0, 0, 0
"BUSLVMAI107", 0.20785, 1,    127.212,   88.2,    1.0601, 2,    127.226,  -91.8,    1.0602, 0, 0, 0, 0
"BUSLVMAI108", 0.20785, 1,    127.138,   88.3,    1.0595, 2,    127.152,  -91.8,    1.0596, 0, 0, 0, 0
"BUSLVMAI109", 0.20785, 1,    127.761,  -31.5,    1.0647, 2,      127.8,  148.5,     1.065, 0, 0, 0, 0
"BUSLVMAI110", 0.20785, 1,    127.781,  -31.6,    1.0648, 2,    127.803,  148.4,     1.065, 0, 0, 0, 0
"BUSLVMAI111", 0.20785, 1,    127.865,  -31.5,    1.0655, 2,    127.882,  148.5,    1.0657, 0, 0, 0, 0
"BUSLVMAI112", 0.20785, 1,        128,  -31.5,    1.0667, 2,    128.016,  148.5,    1.0668, 0, 0, 0, 0
"BUSLVMAI113", 0.20785, 1,    128.257, -150.9,    1.0688, 2,    128.272,   29.1,    1.0689, 0, 0, 0, 0
"BUSLVMAI114", 0.20785, 1,    125.848,  -32.2,    1.0487, 2,    125.863,  147.8,    1.0489, 0, 0, 0, 0
"BUSLVMAI115", 0.20785, 1,    127.866,  -31.5,    1.0656, 2,    127.879,  148.5,    1.0657, 0, 0, 0, 0
"BUSLVMAI116", 0.20785, 1,    127.093,   88.3,    1.0591, 2,    127.106,  -91.7,    1.0592, 0, 0, 0, 0
"BUSLVMAI117", 0.20785, 1,    127.628,  -31.6,    1.0636, 2,    127.651,  148.4,    1.0638, 0, 0, 0, 0
"BUSLVMAI118", 0.20785, 1,    127.976,  -31.4,    1.0665, 2,    127.992,  148.5,    1.0666, 0, 0, 0, 0
"BUSLVMAI119", 0.20785, 1,    126.912,   88.2,    1.0576, 2,    126.925,  -91.8,    1.0577, 0, 0, 0, 0
"BUSLVMAI120", 0.20785, 1,    127.865,  -31.5,    1.0655, 2,    127.879,  148.5,    1.0657, 0, 0, 0, 0
"BUSLVMAI121", 0.20785, 1,      128.3, -150.9,    1.0692, 2,    128.316,   29.1,    1.0693, 0, 0, 0, 0
"BUSLVMAI122", 0.20785, 1,    127.085,   88.3,     1.059, 2,    127.101,  -91.7,    1.0592, 0, 0, 0, 0
"BUSLVMAI123", 0.20785, 1,     128.28, -150.9,     1.069, 2,    128.294,   29.1,    1.0691, 0, 0, 0, 0
"BUSLVMAI124", 0.20785, 1,    126.672,   88.1,    1.0556, 2,    126.713,  -91.9,    1.0559, 0, 0, 0, 0
"BUSLVMAI125", 0.20785, 1,    126.148,   88.0,    1.0512, 2,    126.163,  -92.0,    1.0514, 0, 0, 0, 0
"BUSLVMAI126", 0.20785, 1,    128.294, -150.9,    1.0691, 2,    128.308,   29.1,    1.0692, 0, 0, 0, 0
"BUSLVMAI127", 0.20785, 1,    127.085,   88.3,     1.059, 2,    127.099,  -91.7,    1.0592, 0, 0, 0, 0
"BUSLVMAI128", 0.20785, 1,     128.11, -150.9,    1.0676, 2,    128.131,   29.1,    1.0678, 0, 0, 0, 0
"BUSLVMAI129", 0.20785, 1,    127.865,  -31.5,    1.0655, 2,    127.878,  148.5,    1.0657, 0, 0, 0, 0
"BUSLVMAI130", 0.20785, 1,     128.05,  -31.4,    1.0671, 2,    128.066,  148.5,    1.0672, 0, 0, 0, 0
"BUSLVMAI131", 0.20785, 1,    126.972,  -31.8,    1.0581, 2,    127.002,  148.2,    1.0583, 0, 0, 0, 0
"BUSLVMAI132", 0.20785, 1,    127.862,  -31.5,    1.0655, 2,    127.875,  148.5,    1.0656, 0, 0, 0, 0
"BUSLVMAI133", 0.20785, 1,    127.099,   88.3,    1.0592, 2,    127.117,  -91.7,    1.0593, 0, 0, 0, 0
"BUSLVMAI134", 0.20785, 1,    126.901,   88.2,    1.0575, 2,    126.915,  -91.8,    1.0576, 0, 0, 0, 0
"BUSLVMAI135", 0.20785, 1,    127.058,   88.2,    1.0588, 2,    127.074,  -91.8,    1.0589, 0, 0, 0, 0
"BUSLVMAI136", 0.20785, 1,    127.526,  -31.7,    1.0627, 2,    127.555,  148.3,     1.063, 0, 0, 0, 0
"BUSLVMAI137", 0.20785, 1,    128.231, -150.9,    1.0686, 2,    128.244,   29.1,    1.0687, 0, 0, 0, 0
"BUSLVMAI138", 0.20785, 1,    127.962, -151.0,    1.0663, 2,    127.984,   29.0,    1.0665, 0, 0, 0, 0
"BUSLVMAI139", 0.20785, 1,    127.387, -151.3,    1.0616, 2,    127.405,   28.7,    1.0617, 0, 0, 0, 0
"BUSLVMAI140", 0.20785, 1,     127.69,  -31.6,    1.0641, 2,    127.706,  148.4,    1.0642, 0, 0, 0, 0
"BUSLVMAI141", 0.20785, 1,    128.294, -150.9,    1.0691, 2,    128.308,   29.1,    1.0692, 0, 0, 0, 0
"BUSLVMAI142", 0.20785, 1,    128.032, -151.0,    1.0669, 2,    128.046,   29.0,    1.0671, 0, 0, 0, 0
"BUSLVMAI143", 0.20785, 1,    128.192, -150.9,    1.0683, 2,    128.207,   29.1,    1.0684, 0, 0, 0, 0
"BUSLVMAI144", 0.20785, 1,    127.088,   88.3,    1.0591, 2,    127.103,  -91.7,    1.0592, 0, 0, 0, 0
"BUSLVMAI145", 0.20785, 1,    127.936,  -31.5,    1.0661, 2,    127.951,  148.5,    1.0663, 0, 0, 0, 0
"BUSLVMAI146", 0.20785, 1,    128.268, -150.9,    1.0689, 2,    128.283,   29.1,     1.069, 0, 0, 0, 0
"BUSLVMAI147", 0.20785, 1,     127.17,  -31.7,    1.0598, 2,    127.184,  148.3,    1.0599, 0, 0, 0, 0
"BUSLVMAI148", 0.20785, 1,    126.965,   88.2,     1.058, 2,     126.98,  -91.8,    1.0582, 0, 0, 0, 0
"BUSLVMAI149", 0.20785, 1,    128.127, -150.9,    1.0677, 2,     128.14,   29.1,    1.0678, 0, 0, 0, 0
"BUSLVMAI150", 0.20785, 1,    126.961,  -31.9,     1.058, 2,    126.983,  148.1,    1.0582, 0, 0, 0, 0
"BUSLVMAI151", 0.20785, 1,    127.179, -151.2,    1.0598, 2,    127.192,   28.8,    1.0599, 0, 0, 0, 0
"BUSLVMAI152", 0.20785, 1,    127.854,  -31.5,    1.0654, 2,    127.869,  148.5,    1.0656, 0, 0, 0, 0
"BUSLVMAI153", 0.20785, 1,    126.462,   88.0,    1.0538, 2,    126.478,  -92.0,     1.054, 0, 0, 0, 0
"BUSLVMAI154", 0.20785, 1,    127.092,   88.3,    1.0591, 2,    127.108,  -91.7,    1.0592, 0, 0, 0, 0
"BUSLVMAI155", 0.20785, 1,     127.67,  -31.6,    1.0639, 2,    127.685,  148.4,     1.064, 0, 0, 0, 0
"BUSLVMAI156", 0.20785, 1,    127.868,  -31.5,    1.0656, 2,    127.881,  148.5,    1.0657, 0, 0, 0, 0
"BUSLVMAI157", 0.20785, 1,    127.316,  -31.7,     1.061, 2,    127.332,  148.3,    1.0611, 0, 0, 0, 0
"BUSLVMAI158", 0.20785, 1,    128.245, -150.9,    1.0687, 2,    128.259,   29.1,    1.0688, 0, 0, 0, 0
"BUSLVMAI159", 0.20785, 1,    128.269, -150.9,    1.0689, 2,    128.282,   29.1,     1.069, 0, 0, 0, 0
"BUSLVMAI160", 0.20785, 1,    127.436,  -31.6,     1.062, 2,    127.455,  148.4,    1.0621, 0, 0, 0, 0
"BUSLVMAI161", 0.20785, 1,    127.645,  -31.6,    1.0637, 2,     127.67,  148.4,    1.0639, 0, 0, 0, 0
"BUSLVMAI162", 0.20785, 1,    127.607,  -31.6,    1.0634, 2,    127.623,  148.4,    1.0635, 0, 0, 0, 0
"BUSLVMAI163", 0.20785, 1,    127.854,  -31.5,    1.0654, 2,    127.869,  148.5,    1.0656, 0, 0, 0, 0
"BUSLVMAI164", 0.20785, 1,    128.078,  -31.4,    1.0673, 2,    128.091,  148.6,    1.0674, 0, 0, 0, 0
"BUSLVMAI165", 0.20785, 1,    127.217,  -31.7,    1.0601, 2,    127.264,  148.3,    1.0605, 0, 0, 0, 0
"BUSLVMAI166", 0.20785, 1,    127.583,  -31.7,    1.0632, 2,    127.609,  148.3,    1.0634, 0, 0, 0, 0
"BUSLVMAI167", 0.20785, 1,    126.921,   88.2,    1.0577, 2,    126.954,  -91.8,     1.058, 0, 0, 0, 0
"BUSLVMAI168", 0.20785, 1,    127.033,   88.3,    1.0586, 2,    127.047,  -91.7,    1.0587, 0, 0, 0, 0
"BUSLVMAI169", 0.20785, 1,    125.748,  -31.9,    1.0479, 2,    125.766,  148.1,    1.0481, 0, 0, 0, 0
"BUSLVMAI170", 0.20785, 1,    127.856,  -31.5,    1.0655, 2,     127.87,  148.5,    1.0656, 0, 0, 0, 0
"BUSLVMAI171", 0.20785, 1,    127.291,  -31.7,    1.0608, 2,    127.374,  148.3,    1.0614, 0, 0, 0, 0
"BUSLVMAI172", 0.20785, 1,    126.971,   88.2,    1.0581, 2,    126.985,  -91.8,    1.0582, 0, 0, 0, 0
"BUSLVMAI173", 0.20785, 1,    127.082,   88.3,     1.059, 2,    127.098,  -91.7,    1.0592, 0, 0, 0, 0
"BUSLVMAI174", 0.20785, 1,    127.705,  -31.6,    1.0642, 2,    127.728,  148.4,    1.0644, 0, 0, 0, 0
"BUSLVMAI175", 0.20785, 1,    127.249,  -31.8,    1.0604, 2,    127.263,  148.2,    1.0605, 0, 0, 0, 0
"BUSLVMAI176", 0.20785, 1,    127.011,   88.2,    1.0584, 2,    127.024,  -91.8,    1.0585, 0, 0, 0, 0
"BUSLVMAI177", 0.20785, 1,    127.124,   88.3,    1.0594, 2,    127.137,  -91.7,    1.0595, 0, 0, 0, 0
"BUSLVMAI178", 0.20785, 1,    128.253, -150.9,    1.0688, 2,    128.266,   29.1,    1.0689, 0, 0, 0, 0
"BUSLVMAI179", 0.20785, 1,     128.12, -151.0,    1.0677, 2,    128.133,   29.0,    1.0678, 0, 0, 0, 0
"BUSLVMAI180", 0.20785, 1,    127.868,  -31.5,    1.0656, 2,    127.881,  148.5,    1.0657, 0, 0, 0, 0
"BUSLVMAI181", 0.20785, 1,    127.854,  -31.5,    1.0655, 2,    127.868,  148.5,    1.0656, 0, 0, 0, 0
"BUSLVMAI182", 0.20785, 1,     127.52,  -31.6,    1.0627, 2,    127.598,  148.4,    1.0633, 0, 0, 0, 0
"BUSLVMAI183", 0.20785, 1,    126.972,   88.2,    1.0581, 2,    126.986,  -91.8,    1.0582, 0, 0, 0, 0
"BUSLVMAI184", 0.20785, 1,    128.041,  -31.5,     1.067, 2,    128.054,  148.5,    1.0671, 0, 0, 0, 0
"BUSLVMAI185", 0.20785, 1,    127.823, -151.0,    1.0652, 2,    127.837,   29.0,    1.0653, 0, 0, 0, 0
"BUSLVMAI186", 0.20785, 1,    127.096,   88.3,    1.0591, 2,    127.111,  -91.7,    1.0593, 0, 0, 0, 0
"BUSLVMAI187", 0.20785, 1,    127.052,   88.3,    1.0588, 2,    127.065,  -91.7,    1.0589, 0, 0, 0, 0
"BUSLVMAI188", 0.20785, 1,     128.27, -150.9,    1.0689, 2,    128.286,   29.1,    1.0691, 0, 0, 0, 0
"BUSLVMAI189", 0.20785, 1,    127.863,  -31.5,    1.0655, 2,    127.879,  148.5,    1.0657, 0, 0, 0, 0
"BUSLVMAI190", 0.20785, 1,    128.267, -150.9,    1.0689, 2,    128.284,   29.1,     1.069, 0, 0, 0, 0
"BUSLVMAI191", 0.20785, 1,    127.092,   88.3,    1.0591, 2,    127.108,  -91.7,    1.0592, 0, 0, 0, 0
"BUSLVMAI192", 0.20785, 1,    127.843,  -31.5,    1.0654, 2,    127.859,  148.5,    1.0655, 0, 0, 0, 0
"BUSLVMAI193", 0.20785, 1,    127.857,  -31.5,    1.0655, 2,    127.873,  148.5,    1.0656, 0, 0, 0, 0
"BUSLVMAI194", 0.20785, 1,    127.029,   88.3,    1.0586, 2,    127.044,  -91.8,    1.0587, 0, 0, 0, 0
"BUSLVMAI195", 0.20785, 1,    127.094,   88.3,    1.0591, 2,     127.11,  -91.7,    1.0592, 0, 0, 0, 0
"BUSLVMAI196", 0.20785, 1,    128.254, -150.9,    1.0688, 2,     128.27,   29.1,    1.0689, 0, 0, 0, 0
"BUSLVMAI197", 0.20785, 1,    128.149, -150.9,    1.0679, 2,    128.164,   29.1,     1.068, 0, 0, 0, 0
"BUSLVMAI198", 0.20785, 1,    128.256, -150.9,    1.0688, 2,    128.272,   29.1,    1.0689, 0, 0, 0, 0
"BUSLVMAI199", 0.20785, 1,    128.256, -150.9,    1.0688, 2,    128.272,   29.1,    1.0689, 0, 0, 0, 0
"BUSLVMAI200", 0.20785, 1,    127.845,  -31.5,    1.0654, 2,     127.86,  148.5,    1.0655, 0, 0, 0, 0
...
